 &PTRACERS_PARM01
 PTRACERS_numInUse      = 5,
 PTRACERS_Iter0         = 0,
 PTRACERS_addSrelax2EmP = .TRUE.,
 PTRACERS_units(:)      = 5*'mol/m^3',
 PTRACERS_advScheme(:)  = 5*7,
 PTRACERS_diffKh(:)     = 5*0.E3,
 PTRACERS_diffKr(:)     = 5*5.E-5,
 PTRACERS_useGMRedi(:)  = 5*.TRUE.,
 PTRACERS_useKPP(:)     = 5*.TRUE.,
 PTRACERS_initialFile(:)= 5*' ',

# tracer 1 - dic
 PTRACERS_names(1)     = 'dic',
 PTRACERS_long_names(1)= 'Dissolved Inorganic Carbon (DIC) [mol C/m^3]',
 PTRACERS_EvPrRn(1)    = 0.,
 PTRACERS_ref(1:60,1)  = 2.00811631, 2.01276108, 2.02104325, 2.02754743, 2.03160389,
       2.0386283 , 2.04862065, 2.058613  , 2.06979774, 2.08098247,
       2.09138018, 2.10099087, 2.11060156, 2.12106582, 2.13153008,
       2.14105203, 2.14963166, 2.1582113 , 2.16679094, 2.17537057,
       2.18293345, 2.18947955, 2.19602566, 2.20257177, 2.20911788,
       2.2156249 , 2.22241624, 2.23017778, 2.2392329 , 2.24744004,
       2.25445258, 2.26353701, 2.27501207, 2.28608117, 2.29903481,
       2.31647625, 2.33518249, 2.35230774, 2.36218722, 2.37127314,
       2.3833034 , 2.39104549, 2.39587604, 2.39951367, 2.40222264,
       2.40516448, 2.40714516, 2.40931692, 2.40967223, 2.4093923 ,
       2.40820546, 2.40670291, 2.40281656, 2.39818803, 2.39169202,
       2.38526154, 2.37918701, 2.37471488, 2.3706412 , 2.36912091,
# tracer 2 - alk
 PTRACERS_names(2)     = 'alk',
 PTRACERS_long_names(2)= 'Alkalinity (Alk) [mol eq/m^3]',
 PTRACERS_EvPrRn(2)    = 0.,
 PTRACERS_ref(1:60,2)  = 2.31770351, 2.31831634, 2.32039186, 2.32527518, 2.33078906,
       2.33442139, 2.33617216, 2.33792294, 2.34115727, 2.3443916 ,
       2.34579805, 2.34537662, 2.34495519, 2.34484909, 2.34474299,
       2.34443245, 2.34391747, 2.34340249, 2.34288752, 2.34237254,
       2.34209584, 2.34205742, 2.34201901, 2.34198059, 2.34194217,
       2.34255746, 2.3438899 , 2.34541269, 2.34718929, 2.34915494,
       2.35145073, 2.35442482, 2.35818157, 2.36130687, 2.36486612,
       2.37085036, 2.37819767, 2.38682244, 2.39662908, 2.4072264 ,
       2.41669867, 2.42643693, 2.43442036, 2.4420514 , 2.4482057 ,
       2.45454917, 2.45955668, 2.46513211, 2.46959599, 2.47348556,
       2.47625716, 2.47918605, 2.47971111, 2.47999573, 2.47909823,
       2.47731367, 2.47490966, 2.47267927, 2.4704655 , 2.46898483,
# tracer 3 - po4
 PTRACERS_names(3)     = 'po4',
 PTRACERS_long_names(3)= 'Phosphate (PO4) [mol P/m^3]',
 PTRACERS_ref(1:60,3)  = 0.00032137, 0.00030984, 0.00031073, 0.00031108, 0.00033333,
        0.0003476 , 0.00038022, 0.00042295, 0.0004795 , 0.00055414,
        0.00061013, 0.00067317, 0.00073621, 0.00079756, 0.0008589 ,
        0.00093605, 0.00102902, 0.00112199, 0.00117681, 0.00123162,
        0.00128649, 0.00134142, 0.00139634, 0.00146559, 0.00153483,
        0.00160438, 0.00167773, 0.00175743, 0.00183219, 0.00191456,
        0.00201162, 0.00212484, 0.00221597, 0.00235291, 0.00248596,
        0.00260945, 0.00277197, 0.00289793, 0.00300061, 0.00304833,
        0.00306207, 0.00305179, 0.0030294 , 0.00302065, 0.00298787,
        0.0029924 , 0.00297123, 0.0029156 , 0.00287287, 0.00284441,
        0.00280193, 0.00275807, 0.0027099 , 0.00266786, 0.00262094,
        0.00258259, 0.00255122, 0.00252123, 0.00250034, 0.00248290,
# tracer 4 - dop
 PTRACERS_names(4)     = 'dop',
 PTRACERS_long_names(4)= 'Dissolved Organic Phosphorus (DOP) [mol P/m^3]',
 PTRACERS_units(4)     = 'mol/m^3',
 PTRACERS_ref(1:60,4)  = 60*0.,
# tracer 5 - o2
 PTRACERS_names(5)     = 'do2',
 PTRACERS_long_names(5)= 'Dissolved Oxygen (O2) [mol O/m^3]',
 PTRACERS_ref(1:60,5)  = 0.21060188, 0.21022356, 0.21029781, 0.21189244, 0.21290721,
        0.21374166, 0.21403159, 0.21449478, 0.21406344, 0.21291076,
        0.20948882, 0.20678182, 0.20407483, 0.19625509, 0.18843536,
        0.18212823, 0.1773337 , 0.17253917, 0.16769373, 0.16284829,
        0.15776596, 0.15244673, 0.14712749, 0.14243056, 0.13773364,
        0.13300629, 0.12801064, 0.12249404, 0.11691231, 0.11172617,
        0.10722618, 0.10221527, 0.09985336, 0.09470696, 0.08579169,
        0.07388356, 0.07130809, 0.06232455, 0.05044516, 0.05169175,
        0.05544388, 0.05883926, 0.0652019 , 0.06826297, 0.07375278,
        0.07907985, 0.0847916 , 0.09234477, 0.09873507, 0.1044398 ,
        0.11140497, 0.11855704, 0.12552495, 0.1342162 , 0.14056373,
        0.14848363, 0.15535835, 0.16121686, 0.16443167, 0.16654833,
 &
