# Packages
 &PACKAGES
 useDiagnostics=.TRUE.,
 useMNC        =.TRUE.,
 useCAL        =.TRUE.,
 useEXF        =.TRUE.,
 useRBCS       =.TRUE.,
 useKPP        =.TRUE.,
 useGMREDI     =.TRUE.,
 usePtracers   =.TRUE.,
 useGCHEM      =.TRUE.,
 &
