#
# *******************
# Calendar Parameters
# *******************
 &CAL_NML
 TheCalendar='model',
# TheCalendar='gregorian',
# startDate_1=19920101,
# startDate_2=000000,
 &
