# Packages
 &PACKAGES
 useRBCS=.TRUE.,
 useGMREDI=.TRUE.,
 useKPP=.TRUE.,
 useDiagnostics=.TRUE.,
 useMNC=.TRUE.,
#useMY82=.TRUE.,
#useEXF=.TRUE.,
#useCal=.TRUE.,
#usePtracers=.TURE.,
 &
