# Packages
 &PACKAGES
 useRBCS=.TRUE.,
 useGMREDI=.TRUE.,
 useKPP=.TRUE.,
 useDiagnostics=.TRUE.,
 useMNC=.TRUE.,
 useEXF=.TRUE.,
 usePtracers=.TRUE.,
 useGCHEM=.TRUE.,
 &
