#
# *******************
# Calendar Parameters
# *******************
 &CAL_NML
 TheCalendar='model',
# TheCalendar='gregorian',
 startDate_1=00010101,
 startDate_2=000000,
 &
